OPT_V10/Two_days_first_run/powerflow_results_t5.txt
Pandapower Network Debug Info
==================================================

BUS:
       vm_pu  va_degree      p_mw    q_mvar
0   0.992991   0.106910  0.001177  0.000828
1   0.988619   0.181095  0.001568  0.001796
2   0.984651   0.264946  0.001921  0.003073
3   0.989247   0.179789  0.002542  0.003853
4   0.990522   0.159727  0.002894  0.004113
5   0.992241   0.121561  0.003493  0.005522
6   0.990615   0.115530  0.001208  0.000823
7   0.997262   0.019672  0.002093  0.002100
8   0.998019   0.028779  0.002123  0.002562
9   0.999833   0.001823  0.009637  0.009827
10  0.999839   0.001778  0.008916  0.010485
11  0.999856   0.001614  0.010464  0.012152
12  0.999783   0.001453  0.011478  0.007184
13  0.999760   0.001701  0.009740  0.010169
14  0.999769   0.001629  0.010961  0.010448
15  0.999931   0.000834  0.000000  0.000000
16  0.999931   0.000840  0.000000  0.000000
17  0.999789   0.001488  0.000000  0.000000
18  0.999789   0.001497  0.000000  0.000000
19  1.000000   0.000000 -0.036368 -0.047110
20  1.000000   0.000006  0.000000  0.000000
21  1.000000   0.000000 -0.044121 -0.048006
22  1.000000   0.000007  0.000000  0.000000
--------------------------------------------------

LINE:
    p_from_mw  q_from_mvar   p_to_mw  q_to_mvar         pl_mw       ql_mvar  i_from_ka   i_to_ka      i_ka  vm_from_pu  va_from_degree  vm_to_pu  va_to_degree  loading_percent
0    0.036358     0.043110 -0.036355  -0.043107  3.110816e-06  2.425555e-06   0.002171  0.002171  0.002171    1.000000        0.000006  0.999931      0.000834         0.943753
1    0.044111     0.044006 -0.044100  -0.043998  1.044291e-05  8.142509e-06   0.002398  0.002398  0.002398    1.000000        0.000007  0.999789      0.001488         1.042715
2    0.029020     0.032466 -0.029018  -0.032464  2.623428e-06  2.045530e-06   0.001676  0.001676  0.001676    0.999931        0.000834  0.999856      0.001614         0.728783
3    0.011478     0.007184 -0.011478  -0.007184  6.343513e-08  4.946141e-08   0.000521  0.000521  0.000521    0.999789        0.001488  0.999783      0.001453         0.226652
4    0.020701     0.020617 -0.020701  -0.020617  4.669414e-07  3.640819e-07   0.001125  0.001125  0.001125    0.999789        0.001488  0.999769      0.001629         0.489035
5    0.007324     0.009641 -0.007256  -0.009588  6.857686e-05  5.347051e-05   0.017477  0.017477  0.017477    0.999931        0.000840  0.992991      0.106910         7.598837
6    0.004752     0.006385 -0.004703  -0.006346  4.916231e-05  3.833267e-05   0.011490  0.011490  0.011490    0.999789        0.001497  0.992241      0.121561         4.995603
7    0.002099     0.002105 -0.002093  -0.002100  5.971276e-06  4.655902e-06   0.004291  0.004291  0.004291    0.999789        0.001497  0.997262      0.019672         1.865684
8    0.005060     0.006709 -0.005048  -0.006699  1.214627e-05  9.470650e-06   0.012132  0.012132  0.012132    0.999789        0.001497  0.998019      0.028779         5.274579
9    0.009637     0.009827 -0.009637  -0.009827  6.553637e-08  5.109978e-08   0.000530  0.000530  0.000530    0.999839        0.001778  0.999833      0.001823         0.230375
10   0.018554     0.020312 -0.018553  -0.020312  3.702497e-07  2.886898e-07   0.001059  0.001059  0.001059    0.999856        0.001614  0.999839      0.001778         0.460451
11   0.009740     0.010169 -0.009740  -0.010169  9.701317e-08  7.564277e-08   0.000542  0.000542  0.000542    0.999769        0.001629  0.999760      0.001701         0.235696
12  -0.003501    -0.004878  0.003523   0.004895  2.182519e-05  1.701746e-05   0.008767  0.008767  0.008767    0.988619        0.181095  0.992991      0.106910         3.811600
13  -0.002542    -0.003853  0.002556   0.003865  1.453800e-05  1.133552e-05   0.006735  0.006735  0.006735    0.989247        0.179789  0.992991      0.106910         2.928318
14  -0.001921    -0.003073  0.001933   0.003082  1.225412e-05  9.554736e-06   0.005312  0.005312  0.005312    0.984651        0.264946  0.988619      0.181095         2.309754
15   0.002925     0.004138 -0.002894  -0.004113  3.136613e-05  2.445669e-05   0.007328  0.007328  0.007328    0.998019        0.028779  0.990522      0.159727         3.186256
16  -0.001208    -0.000823  0.001210   0.000825  1.895734e-06  1.478135e-06   0.002130  0.002130  0.002130    0.990615        0.115530  0.992241      0.121561         0.926031
--------------------------------------------------

TRAFO:
    p_hv_mw  q_hv_mvar   p_lv_mw  q_lv_mvar    pl_mw  ql_mvar   i_hv_ka   i_lv_ka  vm_hv_pu  va_hv_degree  vm_lv_pu  va_lv_degree  loading_percent
0  0.007334   0.010641 -0.007324  -0.009641  0.00001    0.001  0.000497  0.017477  0.999931      0.000834  0.999931      0.000840         0.129247
1  0.011921   0.016198 -0.011911  -0.015198  0.00001    0.001  0.000774  0.027876  0.999789      0.001488  0.999789      0.001497         0.201156
2  0.036368   0.047110 -0.036358  -0.043110  0.00001    0.004  0.000491  0.002171  1.000000      0.000000  1.000000      0.000006         0.148786
3  0.044121   0.048006 -0.044111  -0.044006  0.00001    0.004  0.000538  0.002398  1.000000      0.000000  1.000000      0.000007         0.163004
--------------------------------------------------
